&HEAD CHID='test', TITLE='Sublime syntax highlighting for FDS' /

&MESH IJK=10,10,10, XB=0,1,0,1,0,1, ID='m1' / comments follow end slash
MESH IJK=5,5,5, XB=0,1,0,1,0,1, ID='m1' / or a line without a starting &

&TIME T_END=1 /

&MISC SUPPRESSION=.TRUE. /

&PRES VELOCITY_TOLERANCE=1.E-6
      MAX_PRESSURE_ITERATIONS=1
      CHECK_POISSON=.TRUE./

Random text is a comment

&RADI RADIATION=F/ T/F work in fortran namelist

&SURF ID='burner', HRRPUA=100., COLOR='RED' /

&VENT PBZ=0., SURF_ID='burner' /

&SLCF PBY=5, QUANTITY='TEMPERATURE', CELL_CENTERED=.TRUE. /

&TAIL /


