&HEAD CHID='test', TITLE='Sublime syntax highlighting for FDS' /

&MESH IJK=10,10,10, XB=0,1,0,1,0,1, ID='m1' / comments follow end slash

MESH IJK=5,5,5, XB=0,1,0,1,0,1, ID='m1' / or a line without a starting &

&TIME T_END=1 /

&MISC SUPPRESSION=.TRUE. /

&PRES VELOCITY_TOLERANCE=1.E-6
      MAX_PRESSURE_ITERATIONS=1
      CHECK_POISSON=.TRUE./

Random text is a comment

&RADI RADIATION=F/ T/F work in fortran namelist

&SPEC ID='METHANE', LUMPED_COMPONENT_ONLY=T /
&SPEC ID='PROPANE', LUMPED_COMPONENT_ONLY=T /
&SPEC ID='natural gas'
      SPEC_ID(1)='METHANE', MASS_FRACTION(1)=0.5
      SPEC_ID(2)='PROPANE', MASS_FRACTION(2)=0.5 /

&SURF ID='burner', HRRPUA=100., COLOR='RED' /

&VENT PBZ=0., SURF_ID='burner' /

&SLCF PBY=5, QUANTITY='TEMPERATURE', CELL_CENTERED=.TRUE. /

&GEOM ID='tetr', VERTS=0,0,0, 1,0,0, 0,1,0, 0,0,1, FACES=1,2,3,4 /

&HVAC ID='vent', AREA=2 /

&TAIL /


